LTspice 26.0.1 for Windows
Circuit: Z:\home\rami\ITBA\Microelectronica\1.net
Start Time: Wed May 13 20:10:55 2026
solver = Normal
Maximum thread count: 4
tnom = 27
temp = 27
method = trap
.OP point found by inspection.
.OP point found by inspection.
Total elapsed time: 0.098 seconds.

Files loaded:
Z:\home\rami\ITBA\Microelectronica\1.net
C:\users\rami\AppData\Local\LTspice\lib\sub\models.txt

